Circuit: * /Users/sean/IdeaProjects/CircuitBuilder/LTSpiceSchematic.asc

Limiting rise time of source vdd to 0.0003
Limiting fall time of source vdd to 0.0003
Direct Newton iteration for .op point succeeded.

Date: Sun Jan 21 07:53:59 2018
Total elapsed time: 0.423 seconds.

tnom = 27
temp = 27
method = modified trap
totiter = 2148
traniter = 2141
tranpoints = 1062
accept = 1058
rejected = 4
matrix size = 77
fillins = 0
solver = Normal
Thread vector: 21.3/16.8[4] 8.0/6.5[4] 3.1/6.2[1] 0.3/5.0[1]  2592/500
Matrix Compiler1: 4236 object code size  1.6/0.9/[0.4]
Matrix Compiler2: off

