Circuit: * /Users/sean/IdeaProjects/CircuitBuilder/LTSpiceSchematic.asc

Limiting rise time of source vdd to 0.0003
Limiting fall time of source vdd to 0.0003
Direct Newton iteration for .op point succeeded.

Date: Sat Jan 20 23:35:55 2018
Total elapsed time: 0.202 seconds.

tnom = 27
temp = 27
method = modified trap
totiter = 2164
traniter = 2157
tranpoints = 1079
accept = 1070
rejected = 9
matrix size = 11
fillins = 0
solver = Normal
Matrix Compiler1: 504 object code size  0.1/0.1/[0.1]
Matrix Compiler2:      74 opcodes

