Circuit: * /Users/sean/IdeaProjects/CircuitBuilder/LTSpiceSchematic.asc

Limiting rise time of source vdd to 0.0003
Limiting fall time of source vdd to 0.0003
Direct Newton iteration for .op point succeeded.

Date: Sun Jan 21 01:59:52 2018
Total elapsed time: 0.190 seconds.

tnom = 27
temp = 27
method = modified trap
totiter = 2146
traniter = 2139
tranpoints = 1062
accept = 1058
rejected = 4
matrix size = 11
fillins = 0
solver = Normal
Matrix Compiler1: 468 object code size  0.2/0.1/[0.0]
Matrix Compiler2: off

