Circuit: * /Users/sean/IdeaProjects/CircuitBuilder/src/Output2.asc

Limiting rise time of source v3 to 0.0004
Limiting fall time of source v3 to 0.0004
Direct Newton iteration for .op point succeeded.

Date: Sat Jan 20 19:02:06 2018
Total elapsed time: 0.197 seconds.

tnom = 27
temp = 27
method = modified trap
totiter = 2118
traniter = 2113
tranpoints = 1057
accept = 1054
rejected = 3
matrix size = 12
fillins = 0
solver = Normal
Matrix Compiler1: 518 object code size  0.2/0.1/[0.0]
Matrix Compiler2: off

